Version 4
SHEET 1 1188 680
WIRE 48 -112 -160 -112
WIRE 128 -112 48 -112
WIRE -160 -96 -160 -112
WIRE 128 -80 128 -112
WIRE 624 -80 512 -80
WIRE 512 -32 512 -80
WIRE 624 -32 624 -80
WIRE -160 0 -160 -16
WIRE -16 0 -160 0
WIRE 48 0 48 -112
WIRE -160 16 -160 0
WIRE -320 32 -320 16
WIRE -320 32 -384 32
WIRE -16 32 -16 0
WIRE 16 32 -16 32
WIRE -384 48 -384 32
WIRE 128 48 128 0
WIRE 128 48 96 48
WIRE 144 48 128 48
WIRE 240 48 224 48
WIRE -320 64 -320 32
WIRE 16 64 -16 64
WIRE 1088 64 976 64
WIRE 240 96 240 48
WIRE 272 96 240 96
WIRE 512 96 512 48
WIRE 512 96 464 96
WIRE 752 96 512 96
WIRE -160 112 -160 96
WIRE -16 112 -16 64
WIRE 1088 128 976 128
WIRE 48 144 48 96
WIRE 80 144 48 144
WIRE 160 192 -16 192
WIRE 272 192 160 192
WIRE 160 208 160 192
FLAG 624 48 0
FLAG 464 192 0
FLAG 160 208 0
FLAG 32 96 0
FLAG 48 -112 +V
FLAG 80 144 -V
FLAG -384 48 0
FLAG -320 -64 +V
FLAG -320 144 -V
FLAG -160 112 0
SYMBOL voltage -16 96 R0
WINDOW 0 -91 21 Left 2
WINDOW 3 -186 121 Left 2
WINDOW 123 0 0 Left 0
WINDOW 39 0 0 Left 0
SYMATTR InstName V1
SYMATTR Value PULSE(2.5 5 0 0 0 1.8m 2m)
SYMBOL res 240 32 R90
WINDOW 0 0 56 VBottom 2
WINDOW 3 37 40 VTop 2
SYMATTR InstName R1
SYMATTR Value 1.52k
SYMBOL Optos\\PC817A 368 144 R0
SYMATTR InstName U1
SYMBOL voltage 624 -48 R0
WINDOW 123 0 0 Left 0
WINDOW 39 0 0 Left 0
SYMATTR InstName V2
SYMATTR Value 5
SYMBOL res 496 -48 R0
SYMATTR InstName R2
SYMATTR Value 4.8k
SYMBOL Digital\\counter 832 64 R0
WINDOW 3 -64 -52 Left 2
SYMATTR Value cycles=3
SYMATTR InstName A1
SYMBOL Comparators\\LT1011 48 48 R0
WINDOW 3 23 23 Left 2
SYMATTR InstName U2
SYMBOL res 112 -96 R0
SYMATTR InstName R3
SYMATTR Value 500
SYMBOL voltage -320 -80 R0
WINDOW 123 0 0 Left 0
WINDOW 39 0 0 Left 0
SYMATTR InstName V3
SYMATTR Value 10
SYMBOL voltage -320 48 R0
WINDOW 123 0 0 Left 0
WINDOW 39 0 0 Left 0
SYMATTR InstName V4
SYMATTR Value 10
SYMBOL res -176 0 R0
SYMATTR InstName R4
SYMATTR Value 10
SYMBOL res -176 -112 R0
SYMATTR InstName R5
SYMATTR Value 10
TEXT 240 -168 Left 2 !.tran 20m
