Version 4
SHEET 1 1188 680
WIRE 624 -80 512 -80
WIRE 512 -32 512 -80
WIRE 624 -32 624 -80
WIRE 1120 64 992 64
WIRE 80 96 -16 96
WIRE 272 96 160 96
WIRE 512 96 512 48
WIRE 512 96 464 96
WIRE 768 96 512 96
WIRE -16 112 -16 96
WIRE 1120 128 992 128
WIRE 160 192 -16 192
WIRE 272 192 160 192
WIRE 496 192 464 192
WIRE 160 208 160 192
WIRE 496 208 496 192
FLAG 624 48 0
FLAG 496 208 0
FLAG 160 208 0
SYMBOL voltage -16 96 R0
WINDOW 3 -56 141 Left 2
WINDOW 123 0 0 Left 0
WINDOW 39 0 0 Left 0
SYMATTR Value PULSE(0 5 0 0 0 1.8m 2m)
SYMATTR InstName V1
SYMBOL res 176 80 R90
WINDOW 0 0 56 VBottom 2
WINDOW 3 32 56 VTop 2
SYMATTR InstName R1
SYMATTR Value 1.52k
SYMBOL Optos\\PC817A 368 144 R0
SYMATTR InstName U1
SYMBOL voltage 624 -48 R0
WINDOW 123 0 0 Left 0
WINDOW 39 0 0 Left 0
SYMATTR InstName V2
SYMATTR Value 5
SYMBOL res 496 -48 R0
SYMATTR InstName R2
SYMATTR Value 4.8k
SYMBOL Digital\\counter 848 64 R0
WINDOW 3 -64 -52 Left 2
SYMATTR Value cycles=3
SYMATTR InstName A1
TEXT 456 304 Left 2 !.tran 20m
